
     RDKit          3D

 76 79  0  0  0  0  0  0  0  0999 V2000
   25.1250  -31.1580   27.1600 C   0  0  0  0  0  0  0  0  0  0  0  0
   24.6300  -32.1990   27.9690 C   0  0  0  0  0  0  0  0  0  0  0  0
   25.5760  -32.9920   28.6680 C   0  0  0  0  0  0  0  0  0  0  0  0
   26.9610  -32.7400   28.5670 C   0  0  0  0  0  0  0  0  0  0  0  0
   27.4180  -31.7000   27.7620 C   0  0  0  0  0  0  0  0  0  0  0  0
   26.5000  -30.9100   27.0560 C   0  0  0  0  0  0  0  0  0  0  0  0
   23.8850  -33.3620   23.5560 C   0  0  0  0  0  0  0  0  0  0  0  0
   23.5530  -33.5570   24.9080 C   0  0  0  0  0  0  0  0  0  0  0  0
   22.7640  -32.5980   25.5790 C   0  0  0  0  0  0  0  0  0  0  0  0
   22.3330  -31.4620   24.8600 C   0  0  0  0  0  0  0  0  0  0  0  0
   22.6570  -31.2660   23.5310 C   0  0  0  0  0  0  0  0  0  0  0  0
   23.4300  -32.2070   22.8750 C   0  0  0  0  0  0  0  0  0  0  0  0
   23.7380  -32.0040   21.5690 F   0  0  0  0  0  0  0  0  0  0  0  0
   22.3760  -32.6860   26.9340 C   0  0  0  0  0  0  0  0  0  0  0  0
   23.7140  -33.5280   32.6430 C   0  0  0  0  0  0  0  0  0  0  0  0
   23.6020  -34.7150   33.4020 C   0  0  0  0  0  0  0  0  0  0  0  0
   23.9260  -34.7150   34.7670 C   0  0  0  0  0  0  0  0  0  0  0  0
   24.3650  -33.5280   35.3940 C   0  0  0  0  0  0  0  0  0  0  0  0
   24.4810  -32.3410   34.6520 C   0  0  0  0  0  0  0  0  0  0  0  0
   24.1590  -32.3360   33.2890 C   0  0  0  0  0  0  0  0  0  0  0  0
   20.0140  -27.4920   23.7420 O   0  0  0  0  0  0  0  0  0  0  0  0
   18.9420  -27.6410   21.7630 O   0  0  0  0  0  0  0  0  0  0  0  0
   18.5920  -30.8170   22.7420 O   0  0  0  0  0  0  0  0  0  0  0  0
   19.0720  -27.8840   23.0650 C   0  0  0  0  0  0  0  0  0  0  0  0
   17.9380  -28.7020   23.6050 C   0  0  0  0  0  0  0  0  0  0  0  0
   18.3840  -30.1220   23.9550 C   0  0  0  0  0  0  0  0  0  0  0  0
   17.3290  -30.8450   24.7680 C   0  0  0  0  0  0  0  0  0  0  0  0
   17.8050  -32.1840   25.3020 C   0  0  0  0  0  0  0  0  0  0  0  0
   18.9380  -31.9960   26.3310 C   0  0  0  0  0  0  0  0  0  0  0  0
   19.8180  -33.2480   26.4930 C   0  0  0  0  0  0  0  0  0  0  0  0
   21.0370  -32.9670   27.3500 N   0  0  0  0  0  0  0  0  0  0  0  0
   23.2280  -32.4850   28.0570 C   0  0  0  0  0  0  0  0  0  0  0  0
   22.3860  -32.6210   29.2050 C   0  0  0  0  0  0  0  0  0  0  0  0
   22.7100  -32.4770   30.6950 C   0  0  0  0  0  0  0  0  0  0  0  0
   23.4040  -33.5200   31.3960 N   0  0  0  0  0  0  0  0  0  0  0  0
   22.3380  -31.4450   31.2640 O   0  0  0  0  0  0  0  0  0  0  0  0
   21.0790  -32.9130   28.7520 C   0  0  0  0  0  0  0  0  0  0  0  0
   19.7780  -33.1550   29.5910 C   0  0  0  0  0  0  0  0  0  0  0  0
   19.9060  -34.2730   30.6450 C   0  0  0  0  0  0  0  0  0  0  0  0
   19.2640  -31.8580   30.2790 C   0  0  0  0  0  0  0  0  0  0  0  0
   16.6920  -32.7970   25.9200 O   0  0  0  0  0  0  0  0  0  0  0  0
   24.4200  -30.5230   26.5950 H   0  0  0  0  0  0  0  0  0  0  0  0
   25.2270  -33.8220   29.3040 H   0  0  0  0  0  0  0  0  0  0  0  0
   27.6880  -33.3580   29.1190 H   0  0  0  0  0  0  0  0  0  0  0  0
   28.5000  -31.5030   27.6840 H   0  0  0  0  0  0  0  0  0  0  0  0
   26.8610  -30.0880   26.4150 H   0  0  0  0  0  0  0  0  0  0  0  0
   24.5000  -34.1120   23.0310 H   0  0  0  0  0  0  0  0  0  0  0  0
   23.9090  -34.4560   25.4380 H   0  0  0  0  0  0  0  0  0  0  0  0
   21.7160  -30.6940   25.3580 H   0  0  0  0  0  0  0  0  0  0  0  0
   22.3020  -30.3670   22.9990 H   0  0  0  0  0  0  0  0  0  0  0  0
   23.2590  -35.6480   32.9250 H   0  0  0  0  0  0  0  0  0  0  0  0
   23.8350  -35.6480   35.3470 H   0  0  0  0  0  0  0  0  0  0  0  0
   24.6180  -33.5280   36.4670 H   0  0  0  0  0  0  0  0  0  0  0  0
   24.8240  -31.4130   35.1390 H   0  0  0  0  0  0  0  0  0  0  0  0
   24.2550  -31.3930   32.7240 H   0  0  0  0  0  0  0  0  0  0  0  0
   20.1060  -27.6650   24.6710 H   0  0  0  0  0  0  0  0  0  0  0  0
   18.8690  -31.6990   22.9590 H   0  0  0  0  0  0  0  0  0  0  0  0
   17.4530  -28.2010   24.4750 H   0  0  0  0  0  0  0  0  0  0  0  0
   17.0710  -28.7080   22.9030 H   0  0  0  0  0  0  0  0  0  0  0  0
   19.3160  -30.0770   24.5650 H   0  0  0  0  0  0  0  0  0  0  0  0
   16.9510  -30.1980   25.5940 H   0  0  0  0  0  0  0  0  0  0  0  0
   16.3870  -30.9620   24.1830 H   0  0  0  0  0  0  0  0  0  0  0  0
   18.2080  -32.8110   24.4730 H   0  0  0  0  0  0  0  0  0  0  0  0
   19.5580  -31.1030   26.0810 H   0  0  0  0  0  0  0  0  0  0  0  0
   18.5300  -31.6650   27.3150 H   0  0  0  0  0  0  0  0  0  0  0  0
   19.2310  -34.1090   26.8890 H   0  0  0  0  0  0  0  0  0  0  0  0
   20.1050  -33.6740   25.5030 H   0  0  0  0  0  0  0  0  0  0  0  0
   23.7220  -34.3770   30.9430 H   0  0  0  0  0  0  0  0  0  0  0  0
   19.0310  -33.4920   28.8340 H   0  0  0  0  0  0  0  0  0  0  0  0
   18.9800  -34.4450   31.2420 H   0  0  0  0  0  0  0  0  0  0  0  0
   20.2450  -35.2220   30.1680 H   0  0  0  0  0  0  0  0  0  0  0  0
   20.7730  -34.0780   31.3170 H   0  0  0  0  0  0  0  0  0  0  0  0
   18.3380  -32.0300   30.8760 H   0  0  0  0  0  0  0  0  0  0  0  0
   20.0620  -31.3900   30.9010 H   0  0  0  0  0  0  0  0  0  0  0  0
   19.1150  -31.0400   29.5350 H   0  0  0  0  0  0  0  0  0  0  0  0
   16.9890  -33.6340   26.2540 H   0  0  0  0  0  0  0  0  0  0  0  0
  1  2  2  0
  1  6  1  0
  1 42  1  0
  2  3  1  0
  2 32  1  0
  3  4  2  0
  3 43  1  0
  4  5  1  0
  4 44  1  0
  5  6  2  0
  5 45  1  0
  6 46  1  0
  7  8  2  0
  7 12  1  0
  7 47  1  0
  8  9  1  0
  8 48  1  0
  9 10  2  0
  9 14  1  0
 10 11  1  0
 10 49  1  0
 11 12  2  0
 11 50  1  0
 12 13  1  0
 14 31  1  0
 14 32  2  0
 15 16  2  0
 15 20  1  0
 15 35  1  0
 16 17  1  0
 16 51  1  0
 17 18  2  0
 17 52  1  0
 18 19  1  0
 18 53  1  0
 19 20  2  0
 19 54  1  0
 20 55  1  0
 21 24  1  0
 21 56  1  0
 22 24  2  0
 23 26  1  0
 23 57  1  0
 24 25  1  0
 25 26  1  0
 25 58  1  0
 25 59  1  0
 26 27  1  0
 26 60  1  0
 27 28  1  0
 27 61  1  0
 27 62  1  0
 28 29  1  0
 28 41  1  0
 28 63  1  0
 29 30  1  0
 29 64  1  0
 29 65  1  0
 30 31  1  0
 30 66  1  0
 30 67  1  0
 31 37  1  0
 32 33  1  0
 33 34  1  0
 33 37  2  0
 34 35  1  0
 34 36  2  0
 35 68  1  0
 37 38  1  0
 38 39  1  0
 38 40  1  0
 38 69  1  0
 39 70  1  0
 39 71  1  0
 39 72  1  0
 40 73  1  0
 40 74  1  0
 40 75  1  0
 41 76  1  0
M  END
$$$$
